200
Ge4 H108 C88
C 4.802583 1.554119 4.390976
C 4.314060 1.722118 5.505441
Ge 5.685543 1.232461 2.708520
C 3.775906 1.876980 6.801022
C 7.601266 1.747109 2.961723
C 4.813699 2.428281 1.365711
C 5.412140 -0.685987 2.184294
C 3.101310 0.781841 7.415481
C 3.939517 3.108417 7.497808
C 8.264689 0.922554 4.065348
C 7.693186 3.248448 3.242689
H 8.091268 1.528965 1.998604
C 5.484541 2.308316 -0.001595
C 3.313725 2.157494 1.311307
H 4.976244 3.443460 1.759652
C 6.563975 -1.151475 1.292920
C 5.204790 -1.615547 3.378238
H 4.485269 -0.670512 1.586671
C 2.936019 -0.441655 6.743811
C 2.592387 0.906347 8.768756
C 3.430593 3.232923 8.851082
C 4.567294 4.218340 6.900083
H 9.309520 1.235594 4.221831
H 8.273835 -0.153289 3.838097
H 7.737214 1.049914 5.021676
H 8.743090 3.554623 3.386472
H 7.147496 3.514318 4.160643
H 7.283316 3.854079 2.422161
H 5.036341 3.002978 -0.730390
H 5.372812 1.295631 -0.419114
H 6.560069 2.529516 0.044794
H 2.811962 2.836083 0.603523
H 2.845211 2.288140 2.296024
H 3.099054 1.131207 0.974903
H 6.393458 -2.179090 0.935594
H 7.519033 -1.152090 1.838582
H 6.690660 -0.517236 0.404783
H 4.934449 -2.631385 3.046835
H 4.411688 -1.257370 4.046817
H 6.120975 -1.703962 3.979220
C 2.313162 -1.534361 7.339454
H 3.327295 -0.534668 5.731002
C 2.755998 2.137784 9.465541
C 1.964609 -0.203576 9.366480
C 3.595884 4.456420 9.522752
C 4.713965 5.431412 7.570394
H 4.946691 4.115785 5.882452
C 2.163085 -2.777671 6.655289
C 1.817938 -1.416648 8.696169
C 2.217843 2.292646 10.761123
H 1.585212 -0.101020 10.384112
C 4.218742 5.549126 8.927109
H 3.204609 4.549432 10.535561
C 5.343759 6.566732 6.976776
C 1.555292 -3.842131 7.265531
H 2.558973 -2.865547 5.642777
C 1.188145 -2.551968 9.289787
C 1.729320 2.460645 11.875587
C 4.368818 6.792435 9.611274
C 5.467918 7.741467 7.668996
H 5.733859 6.479028 5.963106
C 1.063985 -3.726703 8.597567
H 1.459499 -4.787898 6.733582
H 0.798045 -2.464263 10.303457
Ge 0.846360 2.782303 13.558043
C 4.976611 7.856895 9.001032
H 3.972930 6.880311 10.623786
H 5.954418 8.597202 7.204978
H 0.577485 -4.582438 9.061585
C -1.069362 2.267655 13.304840
C 1.718204 1.586483 14.900852
C 1.119764 4.700751 14.082269
H 5.072405 8.802662 9.532981
C -1.732786 3.092210 12.201215
C -1.161282 0.766317 13.023875
H -1.559365 2.485799 14.267959
C 1.047363 1.706448 16.268158
C 3.218178 1.857270 14.955256
H 1.555659 0.571304 14.506911
C -0.032072 5.166239 14.973643
C 1.327113 5.630312 12.888325
H 2.046635 4.685277 14.679892
H -2.777616 2.779170 12.044733
H -1.741931 4.168053 12.428467
H -1.205311 2.964850 11.244887
H -2.211187 0.460141 12.880091
H -0.615593 0.500446 12.105920
H -0.751413 0.160685 13.844402
H 1.495562 1.011786 16.996953
H 1.159091 2.719134 16.685678
H -0.028166 1.485248 16.221769
H 3.719941 1.178681 15.663040
H 3.686692 1.726624 13.970539
H 3.432849 2.883557 15.291660
H 0.138445 6.193854 15.330969
H -0.987130 5.166854 14.427981
H -0.158757 4.532000 15.861780
H 1.597455 6.646149 13.219728
H 2.120215 5.272134 12.219746
H 0.410928 5.718726 12.287343
C -0.555479 -13.615923 4.546108
C -1.044002 -13.447925 5.660573
Ge 0.327481 -13.937582 2.863652
C -1.582156 -13.293062 6.956154
C 2.243204 -13.422933 3.116856
C -0.544363 -12.741761 1.520843
C 0.054078 -15.856029 2.339426
C -2.256752 -14.388202 7.570614
C -1.418545 -12.061626 7.652940
C 2.906627 -14.247488 4.220480
C 2.335124 -11.921595 3.397821
H 2.733206 -13.641078 2.153737
C 0.126479 -12.861726 0.153537
C -2.044337 -13.012549 1.466439
H -0.381818 -11.726583 1.914785
C 1.205913 -16.321517 1.448052
C -0.153272 -16.785590 3.533371
H -0.872793 -15.840555 1.741803
C -2.422043 -15.611698 6.898944
C -2.765675 -14.263695 8.923888
C -1.927468 -11.937119 9.006214
C -0.790767 -10.951703 7.055216
H 3.951458 -13.934448 4.376963
H 2.915773 -15.323331 3.993229
H 2.379152 -14.120128 5.176809
H 3.385028 -11.615420 3.541604
H 1.789434 -11.655725 4.315775
H 1.925254 -11.315964 2.577294
H -0.321721 -12.167065 -0.575258
H 0.014750 -13.874412 -0.263982
H 1.202008 -12.640526 0.199927
H -2.546100 -12.333960 0.758655
H -2.512851 -12.881902 2.451156
H -2.259008 -14.038836 1.130035
H 1.035396 -17.349132 1.090726
H 2.160971 -16.322132 1.993714
H 1.332598 -15.687279 0.559915
H -0.423613 -17.801427 3.201967
H -0.946374 -16.427412 4.201949
H 0.762913 -16.874004 4.134352
C -3.044900 -16.704404 7.494587
H -2.030767 -15.704710 5.886135
C -2.602064 -13.032258 9.620673
C -3.393453 -15.373618 9.521612
C -1.762178 -10.713623 9.677884
C -0.644097 -9.738630 7.725526
H -0.411371 -11.054258 6.037584
C -3.194977 -17.947714 6.810421
C -3.540124 -16.586691 8.851301
C -3.140219 -12.877396 10.916255
H -3.772850 -15.271063 10.539244
C -1.139320 -9.620917 9.082241
H -2.153453 -10.620611 10.690693
C -0.014303 -8.603311 7.131908
C -3.802770 -19.012174 7.420663
H -2.799089 -18.035589 5.797909
C -4.169917 -17.722010 9.444919
C -3.628741 -12.709397 12.030719
C -0.989244 -8.377607 9.766406
C 0.109856 -7.428575 7.824128
H 0.375797 -8.691015 6.118238
C -4.294077 -18.896745 8.752699
H -3.898563 -19.957940 6.888714
H -4.560017 -17.634306 10.458589
Ge -4.511702 -12.387739 13.713175
C -0.381451 -7.313147 9.156164
H -1.385131 -8.289731 10.778918
H 0.596356 -6.572840 7.360110
H -4.780577 -19.752480 9.216717
C -6.427424 -12.902388 13.459972
C -3.639858 -13.583559 15.055984
C -4.238298 -10.469291 14.237401
H -0.285657 -6.367380 9.688113
C -7.090848 -12.077833 12.356347
C -6.519344 -14.403726 13.179007
H -6.917426 -12.684243 14.423091
C -4.310699 -13.463595 16.423291
C -2.139884 -13.312772 15.110388
H -3.802403 -14.598738 14.662043
C -5.390134 -10.003803 15.128775
C -4.030949 -9.539731 13.043457
H -3.311427 -10.484766 14.835024
H -8.135678 -12.390872 12.199865
H -7.099993 -11.001989 12.583599
H -6.563373 -12.205193 11.400019
H -7.569249 -14.709901 13.035223
H -5.973654 -14.669596 12.261052
H -6.109475 -15.009357 13.999534
H -3.862500 -14.158256 17.152086
H -4.198971 -12.450909 16.840810
H -5.386228 -13.684795 16.376901
H -1.638121 -13.991361 15.818172
H -1.671369 -13.443419 14.125671
H -1.925213 -12.286485 15.446792
H -5.219617 -8.976189 15.486102
H -6.345191 -10.003189 14.583113
H -5.516819 -10.638042 16.016912
H -3.760607 -8.523894 13.374861
H -3.237847 -9.897908 12.374879
H -4.947134 -9.451317 12.442476