18

Ge    0.6295   -0.1215   -2.3396
C   -0.0293   -0.9400   -1.5088
C   -0.2309   -0.5941   -0.2247
C   -0.8869   -1.4095    0.6194
C    1.0893    1.0543   -1.8945
C    0.2309    0.5941    0.2247
C   -1.0893   -1.0543    1.8945
C    0.8869    1.4095   -0.6194
C    0.0293    0.9400    1.5087
C   -0.6295    0.1215    2.3396
H   -1.6361   -1.7324    2.5723
H    1.2702    2.3809   -0.2677
H    0.4046    1.9052    1.8887
H   -0.7939    0.4185    3.3885
H    0.7939   -0.4185   -3.3885
H   -0.4045   -1.9052   -1.8888
H   -1.2702   -2.3809    0.2677
H    1.6361    1.7324   -2.5722

