30
H12 C18
C 0.733210 7.170000 0.000000
C 1.423570 6.132930 0.698330
C 0.717410 5.049260 1.244170
C 1.390620 3.961140 1.905980
C 0.708840 2.944430 2.491760
C 1.423570 8.207070 -0.698330
C 0.717410 9.290740 -1.244170
C 1.390620 10.378860 -1.905980
C 0.708840 11.395570 -2.491760
C -0.733210 7.170000 0.000000
C -1.423570 8.207070 -0.698330
C -0.717410 9.290740 -1.244170
C -1.390620 10.378860 -1.905980
C -0.708840 11.395570 -2.491760
C -1.423570 6.132930 0.698330
C -0.717420 5.049260 1.244170
C -1.390620 3.961140 1.905980
C -0.708840 2.944430 2.491760
H 2.494341 6.186398 0.944480
H 2.490320 3.965506 1.931305
H 1.240856 2.126043 2.998911
H 2.494341 8.153602 -0.944480
H 2.490320 10.374494 -1.931305
H 1.240856 12.213957 -2.998911
H -2.494341 8.153602 -0.944480
H -2.490320 10.374494 -1.931305
H -1.240856 12.213957 -2.998911
H -2.494341 6.186398 0.944480
H -2.490320 3.965506 1.931305
H -1.240856 2.126043 2.998911