
     RDKit          3D

 12 13  0  0  0  0  0  0  0  0999 V2000
    3.4694    0.3999   -0.2006 C   0  0  0  0  0  3  0  0  0  0  0  0
    2.9518   -0.8687   -0.0583 C   0  0  0  0  0  3  0  0  0  0  0  0
    1.5865   -1.0310    0.0115 C   0  0  0  0  0  3  0  0  0  0  0  0
    0.7419    0.0352   -0.0573 C   0  0  0  0  0  0  0  0  0  0  0  0
   -0.7208   -0.0986    0.0136 C   0  0  0  0  0  0  0  0  0  0  0  0
   -1.4951   -0.2759   -1.1052 C   0  0  0  0  0  3  0  0  0  0  0  0
   -2.8792   -0.3966   -0.9740 C   0  0  0  0  0  3  0  0  0  0  0  0
   -3.5118   -0.3448    0.2468 C   0  0  0  0  0  3  0  0  0  0  0  0
   -2.7171   -0.1661    1.3589 C   0  0  0  0  0  3  0  0  0  0  0  0
   -1.3279   -0.0442    1.2362 C   0  0  0  0  0  3  0  0  0  0  0  0
    1.2706    1.3003   -0.1997 C   0  0  0  0  0  3  0  0  0  0  0  0
    2.6317    1.4905   -0.2720 C   0  0  0  0  0  3  0  0  0  0  0  0
  1  2  2  0
  1 12  1  0
  2  3  1  0
  3  4  2  0
  4  5  1  0
  4 11  1  0
  5  6  2  0
  5 10  1  0
  6  7  1  0
  7  8  2  0
  8  9  1  0
  9 10  2  0
 11 12  2  0
M  RAD  8   1   2   2   2   3   2   6   2   7   2   8   2   9   2  10   2
M  RAD  2  11   2  12   2
M  END

