
     RDKit          3D

  6  6  0  0  0  0  0  0  0  0999 V2000
    1.1430   -0.7051    0.2567 C   0  0  0  0  0  3  0  0  0  0  0  0
   -0.0741   -1.2160    0.6123 C   0  0  0  0  0  3  0  0  0  0  0  0
   -1.2351   -0.5232    0.3632 C   0  0  0  0  0  3  0  0  0  0  0  0
   -1.1467    0.7016   -0.2547 C   0  0  0  0  0  3  0  0  0  0  0  0
    0.0757    1.2204   -0.6146 C   0  0  0  0  0  3  0  0  0  0  0  0
    1.2372    0.5223   -0.3629 C   0  0  0  0  0  3  0  0  0  0  0  0
  1  2  2  0
  1  6  1  0
  2  3  1  0
  3  4  2  0
  4  5  1  0
  5  6  2  0
M  RAD  6   1   2   2   2   3   2   4   2   5   2   6   2
M  END

