
     RDKit          3D

 12 13  0  0  0  0  0  0  0  0999 V2000
   -2.9206   -0.9682   -0.2280 C   0  0  0  0  0  3  0  0  0  0  0  0
   -3.4833    0.2389    0.1644 C   0  0  0  0  0  3  0  0  0  0  0  0
   -2.7092    1.3355    0.4893 C   0  0  0  0  0  3  0  0  0  0  0  0
   -1.3420    1.1898    0.4099 C   0  0  0  0  0  3  0  0  0  0  0  0
   -0.7260    0.0280    0.0304 C   0  0  0  0  0  0  0  0  0  0  0  0
    0.7284   -0.0543   -0.0313 C   0  0  0  0  0  0  0  0  0  0  0  0
    1.4456   -0.4500    1.0771 C   0  0  0  0  0  3  0  0  0  0  0  0
    2.8311   -0.5225    0.9994 C   0  0  0  0  0  3  0  0  0  0  0  0
    3.5038   -0.2056   -0.1674 C   0  0  0  0  0  3  0  0  0  0  0  0
    2.7922    0.1908   -1.2792 C   0  0  0  0  0  3  0  0  0  0  0  0
    1.4059    0.2567   -1.1800 C   0  0  0  0  0  3  0  0  0  0  0  0
   -1.5258   -1.0391   -0.2846 C   0  0  0  0  0  3  0  0  0  0  0  0
  1  2  2  0
  1 12  1  0
  2  3  1  0
  3  4  2  0
  4  5  1  0
  5  6  1  0
  5 12  2  0
  6  7  2  0
  6 11  1  0
  7  8  1  0
  8  9  2  0
  9 10  1  0
 10 11  2  0
M  RAD  8   1   2   2   2   3   2   4   2   7   2   8   2   9   2  10   2
M  RAD  2  11   2  12   2
M  END

