
     RDKit          3D

 13 14  0  0  0  0  0  0  0  0999 V2000
   -3.5522    1.6810   -0.6594 O   0  0  0  0  0  0  0  0  0  0  0  0
   -2.6444    0.6139   -0.4938 C   0  0  0  0  0  0  0  0  0  0  0  0
   -3.1311   -0.6686   -0.3468 C   0  0  0  0  0  0  0  0  0  0  0  0
   -2.2774   -1.7365   -0.1827 C   0  0  0  0  0  0  0  0  0  0  0  0
   -0.9211   -1.4912   -0.1690 C   0  0  0  0  0  0  0  0  0  0  0  0
   -0.4218   -0.2216   -0.3142 C   0  0  0  0  0  0  0  0  0  0  0  0
    1.0297   -0.0317   -0.2908 C   0  0  0  0  0  0  0  0  0  0  0  0
    1.5644    0.9839   -1.0286 C   0  0  0  0  0  0  0  0  0  0  0  0
    2.9294    1.2015   -1.0354 C   0  0  0  0  0  0  0  0  0  0  0  0
    3.7117    0.3571   -0.2739 C   0  0  0  0  0  0  0  0  0  0  0  0
    3.1823   -0.6742    0.4769 C   0  0  0  0  0  0  0  0  0  0  0  0
    1.8173   -0.8473    0.4483 C   0  0  0  0  0  0  0  0  0  0  0  0
   -1.2869    0.8336   -0.4770 C   0  0  0  0  0  0  0  0  0  0  0  0
  1  2  1  0
  2  3  2  0
  3  4  1  0
  4  5  2  0
  5  6  1  0
  6  7  1  0
  7  8  2  0
  8  9  1  0
  9 10  2  0
 10 11  1  0
 11 12  2  0
  6 13  2  0
 13  2  1  0
 12  7  1  0
M  END

