
     RDKit          3D

 12 13  0  0  0  0  0  0  0  0999 V2000
    2.6828    0.7653    1.4411 C   0  0  0  0  0  3  0  0  0  0  0  0
    3.4824    0.1479    0.4812 C   0  0  0  0  0  3  0  0  0  0  0  0
    2.8864   -0.5199   -0.5674 C   0  0  0  0  0  3  0  0  0  0  0  0
    1.5176   -0.5961   -0.6966 C   0  0  0  0  0  3  0  0  0  0  0  0
    0.7111    0.0075    0.2416 C   0  0  0  0  0  0  0  0  0  0  0  0
    1.3152    0.6726    1.2861 C   0  0  0  0  0  3  0  0  0  0  0  0
   -0.7531   -0.0557    0.1321 C   0  0  0  0  0  0  0  0  0  0  0  0
   -1.3786    0.9394   -0.5686 C   0  0  0  0  0  3  0  0  0  0  0  0
   -2.7308    0.9167   -0.6925 C   0  0  0  0  0  3  0  0  0  0  0  0
   -3.4520   -0.1056   -0.1122 C   0  0  0  0  0  3  0  0  0  0  0  0
   -2.8267   -1.1086    0.5935 C   0  0  0  0  0  3  0  0  0  0  0  0
   -1.4544   -1.0636    0.7052 C   0  0  0  0  0  3  0  0  0  0  0  0
  1  2  2  0
  1  6  1  0
  2  3  1  0
  3  4  2  0
  4  5  1  0
  5  6  2  0
  5  7  1  0
  7  8  2  0
  7 12  1  0
  8  9  1  0
  9 10  2  0
 10 11  1  0
 11 12  2  0
M  RAD  8   1   2   2   2   3   2   4   2   6   2   8   2   9   2  10   2
M  RAD  2  11   2  12   2
M  END

