
     RDKit          3D

 11 11  0  0  0  0  0  0  0  0999 V2000
    0.2921   -1.5578    0.0341 C   0  0  0  0  0  3  0  0  0  0  0  0
   -1.0257   -1.1488    0.0211 C   0  0  0  0  0  0  0  0  0  0  0  0
   -1.2565    0.2149   -0.0086 C   0  0  0  0  0  0  0  0  0  0  0  0
   -0.2176    1.1234   -0.0246 C   0  0  0  0  0  0  0  0  0  0  0  0
    1.0935    0.6971   -0.0113 C   0  0  0  0  0  0  0  0  0  0  0  0
    1.3344   -0.6647    0.0184 C   0  0  0  0  0  0  0  0  0  0  0  0
   -1.8538   -1.8673    0.0337 H   0  0  0  0  0  0  0  0  0  0  0  0
   -2.2875    0.5804   -0.0197 H   0  0  0  0  0  0  0  0  0  0  0  0
   -0.3744    2.1928   -0.0479 H   0  0  0  0  0  0  0  0  0  0  0  0
    1.9209    1.4132   -0.0239 H   0  0  0  0  0  0  0  0  0  0  0  0
    2.3747   -0.9833    0.0286 H   0  0  0  0  0  0  0  0  0  0  0  0
  1  2  2  0
  1  6  1  0
  2  3  1  0
  2  7  1  0
  3  4  2  0
  3  8  1  0
  4  5  1  0
  4  9  1  0
  5  6  2  0
  5 10  1  0
  6 11  1  0
M  RAD  1   1   2
M  END

