
     RDKit          3D

 11 12  0  0  0  0  0  0  0  0999 V2000
    2.6038   -0.8371    0.9240 C   0  0  0  0  0  3  0  0  0  0  0  0
    1.7049    0.0125    1.3179 C   0  0  0  0  0  3  0  0  0  0  0  0
    1.1449    0.7060    0.1547 C   0  0  0  0  0  3  0  0  0  0  0  0
   -0.3107    0.4488   -0.0061 C   0  0  0  0  0  0  0  0  0  0  0  0
   -1.2395    1.4372   -0.2220 C   0  0  0  0  0  3  0  0  0  0  0  0
   -2.5733    1.1119   -0.3605 C   0  0  0  0  0  3  0  0  0  0  0  0
   -3.0239   -0.1890   -0.2901 C   0  0  0  0  0  3  0  0  0  0  0  0
   -2.1043   -1.1915   -0.0739 C   0  0  0  0  0  3  0  0  0  0  0  0
   -0.7770   -0.8460    0.0617 C   0  0  0  0  0  3  0  0  0  0  0  0
    1.8669    0.1206   -0.9932 C   0  0  0  0  0  3  0  0  0  0  0  0
    2.7081   -0.7734   -0.5124 C   0  0  0  0  0  3  0  0  0  0  0  0
  1  2  2  0
  1 11  1  0
  2  3  1  0
  3  4  1  0
  3 10  1  0
  4  5  2  0
  4  9  1  0
  5  6  1  0
  6  7  2  0
  7  8  1  0
  8  9  2  0
 10 11  2  0
M  RAD  8   1   2   2   2   3   2   5   2   6   2   7   2   8   2   9   2
M  RAD  2  10   2  11   2
M  END

