
     RDKit          3D

 10 10  0  0  0  0  0  0  0  0999 V2000
   -0.8004    0.7891   -0.1371 C   0  0  0  0  0  0  0  0  0  0  0  0
   -1.1432   -0.4632    0.0549 C   0  0  0  0  0  0  0  0  0  0  0  0
    0.0905   -1.2518    0.0716 C   0  0  0  0  0  3  0  0  0  0  0  0
    1.1818   -0.2954   -0.1347 C   0  0  0  0  0  0  0  0  0  0  0  0
    0.6448    0.8995   -0.2558 C   0  0  0  0  0  0  0  0  0  0  0  0
   -1.4897    1.6376   -0.2010 H   0  0  0  0  0  0  0  0  0  0  0  0
   -2.1863   -0.8105    0.1763 H   0  0  0  0  0  0  0  0  0  0  0  0
    0.2120   -1.8312    1.0324 H   0  0  0  0  0  0  0  0  0  0  0  0
    2.2685   -0.5007   -0.1854 H   0  0  0  0  0  0  0  0  0  0  0  0
    1.2220    1.8266   -0.4212 H   0  0  0  0  0  0  0  0  0  0  0  0
  1  2  2  0
  1  5  1  0
  1  6  1  0
  2  3  1  0
  2  7  1  0
  3  4  1  0
  3  8  1  0
  4  5  2  0
  4  9  1  0
  5 10  1  0
M  RAD  1   3   2
M  END

