
     RDKit          3D

 11 12  0  0  0  0  0  0  0  0999 V2000
    1.8733    1.0830    0.0194 C   0  0  0  0  0  3  0  0  0  0  0  0
    0.6082    1.5941    0.1899 C   0  0  0  0  0  3  0  0  0  0  0  0
   -0.4709    0.7615    0.0354 C   0  0  0  0  0  0  0  0  0  0  0  0
   -1.7678    1.2496    0.2017 C   0  0  0  0  0  3  0  0  0  0  0  0
   -2.8215    0.3819    0.0379 C   0  0  0  0  0  3  0  0  0  0  0  0
   -2.6431   -0.9429   -0.2822 C   0  0  0  0  0  3  0  0  0  0  0  0
   -1.3391   -1.3847   -0.4378 C   0  0  0  0  0  3  0  0  0  0  0  0
   -0.2609   -0.5527   -0.2835 C   0  0  0  0  0  0  0  0  0  0  0  0
    1.0059   -1.0286   -0.4457 C   0  0  0  0  0  3  0  0  0  0  0  0
    2.1248   -0.2236   -0.2993 C   0  0  0  0  0  0  0  0  0  0  0  0
    3.6911   -0.9376   -0.5295 Cl  0  0  0  0  0  0  0  0  0  0  0  0
  1  2  2  0
  1 10  1  0
  2  3  1  0
  3  4  2  0
  3  8  1  0
  4  5  1  0
  5  6  2  0
  6  7  1  0
  7  8  2  0
  8  9  1  0
  9 10  2  0
 10 11  1  0
M  RAD  7   1   2   2   2   4   2   5   2   6   2   7   2   9   2
M  END

