
     RDKit          3D

 10 11  0  0  0  0  0  0  0  0999 V2000
    2.4294   -0.5876   -0.0666 C   0  0  0  0  0  3  0  0  0  0  0  0
    1.2453   -1.2979   -0.0655 C   0  0  0  0  0  3  0  0  0  0  0  0
    0.0034   -0.6927   -0.0218 C   0  0  0  0  0  0  0  0  0  0  0  0
   -1.1789   -1.4134   -0.0211 C   0  0  0  0  0  3  0  0  0  0  0  0
   -2.4064   -0.7867    0.0229 C   0  0  0  0  0  3  0  0  0  0  0  0
   -2.4242    0.5916    0.0666 C   0  0  0  0  0  3  0  0  0  0  0  0
   -1.2345    1.3055    0.0655 C   0  0  0  0  0  3  0  0  0  0  0  0
   -0.0052    0.6884    0.0217 C   0  0  0  0  0  0  0  0  0  0  0  0
    1.1711    1.4086    0.0211 C   0  0  0  0  0  3  0  0  0  0  0  0
    2.4001    0.7842   -0.0229 C   0  0  0  0  0  3  0  0  0  0  0  0
  1  2  2  0
  1 10  1  0
  2  3  1  0
  3  4  2  0
  3  8  1  0
  4  5  1  0
  5  6  2  0
  6  7  1  0
  7  8  2  0
  8  9  1  0
  9 10  2  0
M  RAD  8   1   2   2   2   4   2   5   2   6   2   7   2   9   2  10   2
M  END

