
     RDKit          3D

 10 11  0  0  0  0  0  0  0  0999 V2000
   -2.3849    0.6508   -0.1109 C   0  0  0  0  0  3  0  0  0  0  0  0
   -1.1989    1.3557   -0.1470 C   0  0  0  0  0  3  0  0  0  0  0  0
   -0.0100    0.6856   -0.0610 C   0  0  0  0  0  0  0  0  0  0  0  0
    1.1882    1.3581   -0.0940 C   0  0  0  0  0  3  0  0  0  0  0  0
    2.4120    0.7268   -0.0107 C   0  0  0  0  0  3  0  0  0  0  0  0
    2.3855   -0.6476    0.1106 C   0  0  0  0  0  3  0  0  0  0  0  0
    1.2023   -1.3568    0.1472 C   0  0  0  0  0  3  0  0  0  0  0  0
    0.0096   -0.6885    0.0613 C   0  0  0  0  0  0  0  0  0  0  0  0
   -1.1918   -1.3606    0.0941 C   0  0  0  0  0  3  0  0  0  0  0  0
   -2.4121   -0.7235    0.0104 C   0  0  0  0  0  3  0  0  0  0  0  0
  1  2  2  0
  1 10  1  0
  2  3  1  0
  3  4  2  0
  3  8  1  0
  4  5  1  0
  5  6  2  0
  6  7  1  0
  7  8  2  0
  8  9  1  0
  9 10  2  0
M  RAD  8   1   2   2   2   4   2   5   2   6   2   7   2   9   2  10   2
M  END

