
     RDKit          3D

 18 17  0  0  0  0  0  0  0  0999 V2000
   -1.4923    1.3394    1.1835 C   0  0  0  0  0  0  0  0  0  0  0  0
   -0.7655    0.6952    0.4805 C   0  0  0  0  0  0  0  0  0  0  0  0
    0.1112   -0.0791   -0.3669 C   0  0  0  0  0  0  0  0  0  0  0  0
   -0.0538   -1.4265   -0.4412 C   0  0  0  0  0  0  0  0  0  0  0  0
   -1.1321   -2.0530    0.3596 C   0  0  0  0  0  0  0  0  0  0  0  0
    1.2052    0.4502   -1.1988 C   0  0  0  0  0  0  0  0  0  0  0  0
    2.1992    1.0848   -0.2931 C   0  0  0  0  0  3  0  0  0  0  0  0
   -2.3014    0.8028    1.7804 H   0  0  0  0  0  0  0  0  0  0  0  0
   -1.5811    2.4089    1.4227 H   0  0  0  0  0  0  0  0  0  0  0  0
   -0.1232    1.8961    0.1044 H   0  0  0  0  0  0  0  0  0  0  0  0
    0.5620   -2.0503   -1.0619 H   0  0  0  0  0  0  0  0  0  0  0  0
   -1.0022   -1.7818    1.4355 H   0  0  0  0  0  0  0  0  0  0  0  0
   -1.1368   -3.1535    0.2021 H   0  0  0  0  0  0  0  0  0  0  0  0
   -2.0917   -1.6300    0.0357 H   0  0  0  0  0  0  0  0  0  0  0  0
    0.8142    1.2423   -1.9044 H   0  0  0  0  0  0  0  0  0  0  0  0
    1.6963   -0.3419   -1.7910 H   0  0  0  0  0  0  0  0  0  0  0  0
    3.2015    1.2107   -0.6375 H   0  0  0  0  0  0  0  0  0  0  0  0
    1.8903    1.3858    0.6903 H   0  0  0  0  0  0  0  0  0  0  0  0
  1  2  2  3
  1  8  1  0
  1  9  1  0
  2  3  1  0
  2 10  1  0
  3  4  2  3
  3  6  1  0
  4  5  1  0
  4 11  1  0
  5 12  1  0
  5 13  1  0
  5 14  1  0
  6  7  1  0
  6 15  1  0
  6 16  1  0
  7 17  1  0
  7 18  1  0
M  RAD  1   7   2
M  END

