
     RDKit          3D

 18 17  0  0  0  0  0  0  0  0999 V2000
   -0.6164    2.2116    0.8096 C   0  0  0  0  0  0  0  0  0  0  0  0
    0.2082    1.3593    0.1637 C   0  0  0  0  0  0  0  0  0  0  0  0
   -0.2106    0.0316   -0.0852 C   0  0  0  0  0  0  0  0  0  0  0  0
   -0.5729   -1.1172   -0.3006 C   0  0  0  0  0  0  0  0  0  0  0  0
   -1.9975   -1.4663    0.2230 C   0  0  0  0  0  0  0  0  0  0  0  0
    1.3478   -0.3095   -1.0435 C   0  0  0  0  0  0  0  0  0  0  0  0
    2.2334   -0.0572    0.0352 C   0  0  0  0  0  3  0  0  0  0  0  0
   -0.3672    3.2093    1.0271 H   0  0  0  0  0  0  0  0  0  0  0  0
   -1.5894    1.8575    1.1279 H   0  0  0  0  0  0  0  0  0  0  0  0
    1.1449    1.8171   -0.0998 H   0  0  0  0  0  0  0  0  0  0  0  0
   -0.1298   -1.9813   -0.7716 H   0  0  0  0  0  0  0  0  0  0  0  0
   -2.4627   -2.1606   -0.4957 H   0  0  0  0  0  0  0  0  0  0  0  0
   -2.5766   -0.5555    0.3008 H   0  0  0  0  0  0  0  0  0  0  0  0
   -1.8957   -1.9765    1.1887 H   0  0  0  0  0  0  0  0  0  0  0  0
    1.1251    0.4547   -1.7448 H   0  0  0  0  0  0  0  0  0  0  0  0
    1.1281   -1.3111   -1.2560 H   0  0  0  0  0  0  0  0  0  0  0  0
    3.2193    0.3848   -0.1285 H   0  0  0  0  0  0  0  0  0  0  0  0
    2.0118   -0.3905    1.0497 H   0  0  0  0  0  0  0  0  0  0  0  0
  1  2  2  3
  1  8  1  0
  1  9  1  0
  2  3  1  0
  2 10  1  0
  3  4  2  3
  3  6  1  0
  4  5  1  0
  4 11  1  0
  5 12  1  0
  5 13  1  0
  5 14  1  0
  6  7  1  0
  6 15  1  0
  6 16  1  0
  7 17  1  0
  7 18  1  0
M  RAD  1   7   2
M  END

