
     RDKit          3D

  7  6  0  0  0  0  0  0  0  0999 V2000
    0.8525    0.0833    0.0143 C   0  0  0  0  0  3  0  0  0  0  0  0
   -0.6064   -0.0798    0.0160 C   0  0  0  0  0  0  0  0  0  0  0  0
    1.2626    1.0657   -0.0950 H   0  0  0  0  0  0  0  0  0  0  0  0
    1.4822   -0.7719    0.0210 H   0  0  0  0  0  0  0  0  0  0  0  0
   -0.9534   -0.7696   -0.7944 H   0  0  0  0  0  0  0  0  0  0  0  0
   -0.9682   -0.4487    1.0050 H   0  0  0  0  0  0  0  0  0  0  0  0
   -1.0694    0.9211   -0.1670 H   0  0  0  0  0  0  0  0  0  0  0  0
  1  2  1  0
  1  3  1  0
  1  4  1  0
  2  5  1  0
  2  6  1  0
  2  7  1  0
M  RAD  1   1   2
M  END

