
     RDKit          3D

  8  7  0  0  0  0  0  0  0  0999 V2000
    1.3308   -0.7664   -0.9404 O   0  0  0  0  0  1  0  0  0  0  0  0
    0.7271    0.0670   -0.0067 C   0  0  0  0  0  0  0  0  0  0  0  0
   -0.7676   -0.0401    0.0095 C   0  0  0  0  0  0  0  0  0  0  0  0
    1.1843   -0.2044    0.9854 H   0  0  0  0  0  0  0  0  0  0  0  0
    1.0103    1.1335   -0.1638 H   0  0  0  0  0  0  0  0  0  0  0  0
   -1.1924   -0.6764   -0.7682 H   0  0  0  0  0  0  0  0  0  0  0  0
   -1.0542   -0.4822    0.9953 H   0  0  0  0  0  0  0  0  0  0  0  0
   -1.2382    0.9689   -0.1111 H   0  0  0  0  0  0  0  0  0  0  0  0
  1  2  1  0
  2  3  1  0
  2  4  1  0
  2  5  1  0
  3  6  1  0
  3  7  1  0
  3  8  1  0
M  RAD  1   1   2
M  END

