12
 C       0.000000002684      1.393159573694      0.000000000000
 C      -1.206511581002      0.696579789172      0.000000000000
 C      -1.206511583687     -0.696579784522      0.000000000000
 C      -0.000000002684     -1.393159573694      0.000000000000
 C       1.206511581002     -0.696579789172      0.000000000000
 C       1.206511583687      0.696579784522      0.000000000000
 H       0.000000004784      2.482680929507      0.000000000000
 H      -2.150064752052      1.241340468896      0.000000000000
 H      -2.150064756836     -1.241340460611      0.000000000000
 H      -0.000000004784     -2.482680929507      0.000000000000
 H       2.150064752052     -1.241340468896      0.000000000000
 H       2.150064756836      1.241340460611      0.000000000000

