34
H12 C20 N2
C -2.119080 -1.979714 0.075342
C -0.885464 -2.706364 0.076761
C -0.817486 -4.079569 -0.110525
C -2.033119 -4.755404 -0.323836
C -3.258979 -4.062704 -0.356802
C -3.305469 -2.683494 -0.156259
C -1.795029 -0.546908 0.248426
C -0.384446 -0.554970 0.347776
C 0.380882 0.550811 0.341217
C 1.792584 0.542658 0.242208
C 2.116172 1.973739 0.059230
C 0.884587 2.700165 0.049961
C 3.299485 2.681081 -0.174789
C 0.812117 4.073435 -0.151611
C 3.252152 4.060803 -0.388918
C 2.025675 4.734231 -0.364762
C -1.593417 1.958952 0.131768
C -2.418951 0.704899 0.232974
C 1.591270 -1.964779 0.154988
C 2.415082 -0.709319 0.240108
N -0.191247 1.789608 0.233616
N 0.187382 -1.795376 0.254438
H 0.150411 -4.602208 -0.105447
H -2.026565 -5.845168 -0.473402
H -4.186533 -4.624350 -0.541726
H -4.269511 -2.154956 -0.191886
H 4.266736 2.157994 -0.203185
H -0.157565 4.592763 -0.155628
H 4.179432 4.622460 -0.575179
H 2.011899 5.822413 -0.524976
H -2.025473 2.957991 -0.027133
H -3.510100 0.830636 0.292842
H 2.021165 -2.966630 0.008407
H 3.506471 -0.833897 0.297987