200
Ge4 H108 C88
Ge 6.195224 1.747220 8.570709
C 5.625368 2.695664 10.150789
C 8.169508 1.820501 8.539374
C 5.490122 -0.090223 8.702307
C 5.477262 2.746791 7.027334
C 5.286404 3.353290 11.097012
H 8.414141 2.747994 8.256785
C 8.816190 1.599956 9.913583
C 8.756310 0.881179 7.492509
H 5.855693 -0.617376 7.934840
C 5.960807 -0.753864 9.998945
C 3.966003 -0.114283 8.608614
H 6.076242 3.536614 6.896507
C 5.542641 1.936788 5.739572
C 4.075561 3.297152 7.243085
C 4.869125 4.169308 12.196676
H 8.699936 0.665225 10.182830
H 8.388443 2.185684 10.573017
H 9.771869 1.809373 9.861970
H 9.730197 0.990158 7.466144
H 8.379570 1.095117 6.614162
H 8.537701 -0.044961 7.726049
H 5.653258 -0.226119 10.766006
H 6.939506 -0.800058 10.006249
H 5.590173 -1.659042 10.056200
H 3.644628 -1.030137 8.743376
H 3.687751 0.202751 7.723965
H 3.587087 0.469671 9.298661
H 4.986367 1.135096 5.828697
H 6.470767 1.672485 5.566279
H 5.214091 2.481295 4.993845
H 3.852017 3.916332 6.517686
H 4.039252 3.770783 8.100349
H 3.431940 2.557633 7.251533
C 3.612248 4.816909 12.152833
C 5.727891 4.346746 13.319612
C 2.737204 4.639470 11.057696
C 3.196576 5.678038 13.228876
C 5.312219 5.207875 14.395655
C 6.980020 3.710173 13.394220
H 3.001173 4.070874 10.343159
C 1.508814 5.269027 10.995401
C 4.055342 5.855477 14.351811
C 1.944447 6.314612 13.154267
C 6.187263 5.385314 15.490792
H 7.253820 3.143401 12.683632
C 7.826006 3.889616 14.483465
C 0.628380 5.108630 9.878729
C 1.098461 6.135168 12.065022
C 3.638063 6.671494 15.451475
H 1.670647 6.881383 13.864855
H 5.923294 5.953910 16.205328
C 7.415653 4.755758 15.553087
C 9.102266 3.257052 14.565198
H 0.890990 4.553127 9.153749
C -0.569382 5.732172 9.836048
C -0.177799 6.767732 11.983289
C 3.299099 7.329120 16.397698
C 8.296087 4.916154 16.669758
H 9.390622 2.692447 13.858271
C 9.913627 3.450531 15.641335
H -1.137857 5.608536 9.084361
C -0.989160 6.574254 10.907152
H -0.466155 7.332338 12.690216
Ge 2.729243 8.277565 17.977778
H 8.033477 5.471658 17.394739
C 9.493849 4.292613 16.712440
H 10.761113 3.023565 15.677641
H -1.836646 7.001219 10.870846
C 0.754959 8.204283 18.009114
C 3.434345 10.115007 17.846180
C 3.447205 7.277993 19.521154
H 10.062324 4.416248 17.464126
H 0.510326 7.276790 18.291702
C 0.108277 8.424829 16.634904
C 0.168157 9.143606 19.055979
H 3.068775 10.642161 18.613648
C 2.963660 10.778648 16.549542
C 4.958464 10.139067 17.939873
H 2.848225 6.488171 19.651981
C 3.381826 8.087996 20.808916
C 4.848906 6.727633 19.305403
H 0.224531 9.359560 16.365657
H 0.536024 7.839101 15.975470
H -0.847402 8.215411 16.686518
H -0.805730 9.034626 19.082344
H 0.544897 8.929667 19.934326
H 0.386766 10.069745 18.822438
H 3.271209 10.250903 15.782481
H 1.984961 10.824842 16.542238
H 3.334294 11.683826 16.492287
H 5.279840 11.054921 17.805111
H 5.236716 9.822033 18.824523
H 5.337380 9.555113 17.249827
H 3.938101 8.889688 20.719790
H 2.453700 8.352299 20.982208
H 3.710376 7.543490 21.554642
H 5.072450 6.108452 20.030801
H 4.885215 6.254002 18.448138
H 5.492527 7.467151 19.296955
Ge -11.296517 -8.277565 -18.348687
C -11.866374 -7.329120 -16.768607
C -9.322234 -8.204283 -18.380023
C -12.001620 -10.115007 -18.217090
C -12.014479 -7.277993 -19.892063
C -12.205338 -6.671494 -15.822385
H -9.077600 -7.276790 -18.662612
C -8.675552 -8.424829 -17.005813
C -8.735432 -9.143606 -19.426888
H -11.636049 -10.642161 -18.984557
C -11.530934 -10.778648 -16.920452
C -13.525739 -10.139067 -18.310783
H -11.415500 -6.488171 -20.022890
C -11.949100 -8.087996 -21.179825
C -13.416180 -6.727633 -19.676312
C -12.622617 -5.855477 -14.722721
H -8.791806 -9.359560 -16.736567
H -9.103299 -7.839101 -16.346380
H -7.719873 -8.215411 -17.057427
H -7.761545 -9.034626 -19.453253
H -9.112171 -8.929667 -20.305235
H -8.954041 -10.069745 -19.193347
H -11.838483 -10.250903 -16.153391
H -10.552236 -10.824842 -16.913147
H -11.901568 -11.683826 -16.863196
H -13.847114 -11.054921 -18.176021
H -13.803991 -9.822033 -19.195432
H -13.904655 -9.555113 -17.620736
H -12.505375 -8.889688 -21.090699
H -11.020975 -8.352299 -21.353117
H -12.277650 -7.543490 -21.925552
H -13.639725 -6.108452 -20.401710
H -13.452490 -6.254002 -18.819048
H -14.059802 -7.467151 -19.667864
C -13.879493 -5.207875 -14.766564
C -11.763851 -5.678038 -13.599785
C -14.754537 -5.385314 -15.861701
C -14.295166 -4.346746 -13.690521
C -12.179523 -4.816909 -12.523742
C -10.511722 -6.314612 -13.525176
H -14.490569 -5.953910 -16.576238
C -15.982928 -4.755758 -15.923996
C -13.436399 -4.169308 -12.567585
C -15.547294 -3.710173 -13.765130
C -11.304479 -4.639470 -11.428605
H -10.237922 -6.881383 -14.235765
C -9.665736 -6.135168 -12.435931
C -16.863362 -4.916154 -17.040667
C -16.393281 -3.889616 -14.854375
C -13.853679 -3.353290 -11.467921
H -15.821094 -3.143401 -13.054541
H -11.568448 -4.070874 -10.714068
C -10.076089 -5.269027 -11.366310
C -8.389476 -6.767732 -12.354198
H -16.600752 -5.471658 -17.765648
C -18.061124 -4.292613 -17.083349
C -17.669541 -3.257052 -14.936108
C -14.192643 -2.695664 -10.521698
C -9.195655 -5.108630 -10.249638
H -8.101120 -7.332338 -13.061125
C -7.578115 -6.574254 -11.278062
H -18.629599 -4.416248 -17.835035
C -18.480902 -3.450531 -16.012244
H -17.957897 -2.692447 -14.229180
Ge -14.762499 -1.747220 -8.941618
H -9.458265 -4.553127 -9.524658
C -7.997892 -5.732172 -10.206957
H -6.730629 -7.001219 -11.241755
H -19.328388 -3.023565 -16.048551
C -16.736783 -1.820501 -8.910283
C -14.057397 0.090223 -9.073216
C -14.044537 -2.746791 -7.398243
H -7.429418 -5.608536 -9.455271
H -16.981416 -2.747994 -8.627694
C -17.383464 -1.599956 -10.284492
C -17.323585 -0.881179 -7.863418
H -14.422967 0.617376 -8.305749
C -14.528082 0.753864 -10.369854
C -12.533278 0.114283 -8.979523
H -14.643517 -3.536614 -7.267416
C -14.109916 -1.936788 -6.110481
C -12.642836 -3.297152 -7.613994
H -17.267211 -0.665225 -10.553739
H -16.955718 -2.185684 -10.943926
H -18.339143 -1.809373 -10.232879
H -18.297472 -0.990158 -7.837053
H -16.946845 -1.095117 -6.985071
H -17.104975 0.044961 -8.096958
H -14.220533 0.226119 -11.136915
H -15.506781 0.800058 -10.377159
H -14.157448 1.659042 -10.427110
H -12.211902 1.030137 -9.114285
H -12.255026 -0.202751 -8.094874
H -12.154361 -0.469671 -9.669570
H -13.553641 -1.135096 -6.199607
H -15.038041 -1.672485 -5.937189
H -13.781366 -2.481295 -5.364754
H -12.419292 -3.916332 -6.888596
H -12.606526 -3.770783 -8.471258
H -11.999214 -2.557633 -7.622442