21
Model[1]: Jmol 14.29.28  2018-10-31 18:38
C       4.45561      7.21531      1.31984
C       3.46982      8.04621      0.73636
C       2.29442      8.40145      1.41962
H       2.17286      8.09273      2.30886
C       4.82910      8.18900     -1.31984
C       5.81488      7.35810     -0.73636
C       6.99028      7.00286     -1.41962
H       7.11184      7.31158     -2.30886
C       7.97766      6.22134     -0.84786
C       9.17514      5.86773     -1.54232
H       9.30606      6.17030     -2.43420
C      10.12511      5.11072     -0.95241
H      10.91010      4.87949     -1.43479
C       9.95805      4.65611      0.38310
H      10.63791      4.13080      0.78831
C       8.84756      4.96117      1.08187
H       8.75399      4.64320      1.97243
C       7.80706      5.75735      0.50499
C       6.64828      6.08180      1.18642
H       6.53295      5.75924      2.07303
C       5.63349      6.87409      0.61531
