
     RDKit          3D

 33 32  0  0  0  0  0  0  0  0999 V2000
    0.0733   -0.0688   -0.3671 Sn  0  0  0  0  0  0  0  0  0  0  0  0
   -0.4574   -0.8472   -3.5496 C   0  0  0  0  0  0  0  0  0  0  0  0
   -0.2689   -0.5611   -2.3761 C   0  0  0  0  0  0  0  0  0  0  0  0
   -1.6201   -0.6605    0.7904 C   0  0  0  0  0  0  0  0  0  0  0  0
   -1.4401   -0.6377    1.8739 H   0  0  0  0  0  0  0  0  0  0  0  0
   -2.1046   -2.0190    0.3050 C   0  0  0  0  0  0  0  0  0  0  0  0
   -1.9736   -2.0513   -0.7929 H   0  0  0  0  0  0  0  0  0  0  0  0
   -3.2196   -2.0524    0.4685 H   0  0  0  0  0  0  0  0  0  0  0  0
   -1.6303   -2.8544    0.8360 H   0  0  0  0  0  0  0  0  0  0  0  0
   -2.7512    0.3217    0.4599 C   0  0  0  0  0  0  0  0  0  0  0  0
   -2.7426    0.5150   -0.6272 H   0  0  0  0  0  0  0  0  0  0  0  0
   -3.6988   -0.2339    0.6985 H   0  0  0  0  0  0  0  0  0  0  0  0
   -2.7239    1.2133    1.0868 H   0  0  0  0  0  0  0  0  0  0  0  0
    0.4647    2.0280   -0.1613 C   0  0  0  0  0  0  0  0  0  0  0  0
    1.4328    2.2179   -0.7085 H   0  0  0  0  0  0  0  0  0  0  0  0
    0.7403    2.3227    1.2869 C   0  0  0  0  0  0  0  0  0  0  0  0
    1.4307    1.5325    1.6626 H   0  0  0  0  0  0  0  0  0  0  0  0
    1.3558    3.2675    1.3037 H   0  0  0  0  0  0  0  0  0  0  0  0
   -0.1458    2.4259    1.9097 H   0  0  0  0  0  0  0  0  0  0  0  0
   -0.6040    2.8781   -0.7600 C   0  0  0  0  0  0  0  0  0  0  0  0
   -0.1116    3.7761   -1.2280 H   0  0  0  0  0  0  0  0  0  0  0  0
   -1.0968    2.3435   -1.5701 H   0  0  0  0  0  0  0  0  0  0  0  0
   -1.2864    3.2172    0.0519 H   0  0  0  0  0  0  0  0  0  0  0  0
    1.8478   -1.1033    0.2584 C   0  0  0  0  0  0  0  0  0  0  0  0
    2.1425   -0.6746    1.2518 H   0  0  0  0  0  0  0  0  0  0  0  0
    2.9124   -0.8345   -0.7799 C   0  0  0  0  0  0  0  0  0  0  0  0
    2.4346   -0.9818   -1.7762 H   0  0  0  0  0  0  0  0  0  0  0  0
    3.2003    0.2487   -0.6594 H   0  0  0  0  0  0  0  0  0  0  0  0
    3.8127   -1.4514   -0.6543 H   0  0  0  0  0  0  0  0  0  0  0  0
    1.5465   -2.5567    0.4240 C   0  0  0  0  0  0  0  0  0  0  0  0
    0.7405   -2.6642    1.1593 H   0  0  0  0  0  0  0  0  0  0  0  0
    1.2649   -2.9707   -0.5641 H   0  0  0  0  0  0  0  0  0  0  0  0
    2.4762   -3.0845    0.7475 H   0  0  0  0  0  0  0  0  0  0  0  0
  1  3  1  0
  1  4  1  0
  1 14  1  0
  1 24  1  0
  2  3  3  0
  4  5  1  0
  4  6  1  0
  4 10  1  0
  6  7  1  0
  6  8  1  0
  6  9  1  0
 10 11  1  0
 10 12  1  0
 10 13  1  0
 14 15  1  0
 14 16  1  0
 14 20  1  0
 16 17  1  0
 16 18  1  0
 16 19  1  0
 20 21  1  0
 20 22  1  0
 20 23  1  0
 24 25  1  0
 24 26  1  0
 24 30  1  0
 26 27  1  0
 26 28  1  0
 26 29  1  0
 30 31  1  0
 30 32  1  0
 30 33  1  0
M  CHG  1   2  -1
M  END

