
     RDKit          3D

 22 26  0  0  0  0  0  0  0  0999 V2000
    0.0830    0.9387   -0.9961 C   0  0  0  0  0  0  0  0  0  0  0  0
    1.2045    0.4551   -0.3827 C   0  0  0  0  0  0  0  0  0  0  0  0
    2.4747    0.8296   -0.7187 C   0  0  0  0  0  0  0  0  0  0  0  0
    3.6104    0.5445   -0.3274 C   0  0  0  0  0  0  0  0  0  0  0  0
    4.9260    0.6206   -0.3283 C   0  0  0  0  0  0  0  0  0  0  0  0
    5.7587    0.2449    0.1443 C   0  0  0  0  0  0  0  0  0  0  0  0
    5.7002   -0.4099    0.8714 C   0  0  0  0  0  0  0  0  0  0  0  0
    4.8062   -0.7631    1.2084 C   0  0  0  0  0  0  0  0  0  0  0  0
    3.4968   -0.6391    0.9858 C   0  0  0  0  0  0  0  0  0  0  0  0
    2.3171   -0.8989    1.1996 C   0  0  0  0  0  0  0  0  0  0  0  0
    1.1313   -0.4813    0.6572 C   0  0  0  0  0  0  0  0  0  0  0  0
   -0.0896   -0.9265    1.0733 C   0  0  0  0  0  0  0  0  0  0  0  0
   -1.2263   -0.4534    0.4705 C   0  0  0  0  0  0  0  0  0  0  0  0
   -2.4840   -0.8401    0.8167 C   0  0  0  0  0  0  0  0  0  0  0  0
   -3.5929   -0.5260    0.3911 C   0  0  0  0  0  0  0  0  0  0  0  0
   -4.9082   -0.6246    0.4116 C   0  0  0  0  0  0  0  0  0  0  0  0
   -5.7380   -0.2673   -0.0434 C   0  0  0  0  0  0  0  0  0  0  0  0
   -5.6952    0.3960   -0.7809 C   0  0  0  0  0  0  0  0  0  0  0  0
   -4.8113    0.7593   -1.1263 C   0  0  0  0  0  0  0  0  0  0  0  0
   -3.5092    0.6573   -0.9235 C   0  0  0  0  0  0  0  0  0  0  0  0
   -2.3167    0.9035   -1.1175 C   0  0  0  0  0  0  0  0  0  0  0  0
   -1.1376    0.4806   -0.5656 C   0  0  0  0  0  0  0  0  0  0  0  0
  1  2  2  0
  1 22  1  0
  2  3  1  0
  2 11  1  0
  3  4  2  0
  4  5  1  0
  4  9  1  0
  5  6  3  0
  6  7  1  0
  7  8  3  0
  8  9  1  0
  9 10  2  0
 10 11  1  0
 11 12  2  0
 12 13  1  0
 13 14  1  0
 13 22  2  0
 14 15  2  0
 15 16  1  0
 15 20  1  0
 16 17  3  0
 17 18  1  0
 18 19  3  0
 19 20  1  0
 20 21  2  0
 21 22  1  0
M  CHG  6   1  -1   3  -1  10  -1  12  -1  14  -1  21  -1
M  END

