12
H6 C6
C 1.074690 2.773820 8.359190
C 1.254910 3.484020 9.539690
C 0.238240 3.565860 10.485270
C -0.949660 2.906110 10.229030
C -1.139250 2.153590 9.087610
C -0.123480 2.101500 8.145990
H 1.865968 2.748263 7.595498
H 2.214158 3.987995 9.729040
H 0.375068 4.140120 11.413442
H -1.785409 2.994083 10.938807
H -2.079339 1.605076 8.928343
H -0.266689 1.522857 7.221510