70
Model[1]: Jmol 14.29.28  2018-10-31 18:38
C       0.73321      7.17000      0.00000
C       1.42357      6.13293      0.69833
C       0.71741      5.04926      1.24417
C       1.39062      3.96114      1.90598
C       0.70884      2.94443      2.49176
C       2.88250      6.20578      1.03371
C       3.82868      5.39062      0.40942
C       5.14322      5.37112      0.84968
C       5.54130      6.17409      1.91110
C       4.61280      6.99003      2.53766
C       3.29558      7.00064      2.10550
H       2.36547      3.96501      1.92843
H       1.17336      2.22987      2.93457
H       3.55758      4.82541     -0.36380
H       5.80518      4.78956      0.39649
H       6.46419      6.16620      2.19702
H       4.88899      7.55718      3.28416
H       2.61996      7.55718      2.56366
C       1.42357      8.20707     -0.69833
C       0.71741      9.29074     -1.24417
C       1.39062     10.37886     -1.90598
C       0.70884     11.39557     -2.49176
C       2.88250      8.13422     -1.03371
C       3.82868      8.94938     -0.40942
C       5.14322      8.96888     -0.84968
C       5.54130      8.16591     -1.91110
C       4.61280      7.34997     -2.53766
C       3.29558      7.33936     -2.10550
H       2.36547     10.37499     -1.92843
H       1.17336     12.11013     -2.93457
H       3.55758      9.51459      0.36380
H       5.80518      9.55044     -0.39649
H       6.46419      8.17380     -2.19702
H       4.88899      6.78282     -3.28416
H       2.61996      6.78282     -2.56366
C      -0.73321      7.17000      0.00000
C      -1.42357      8.20707     -0.69833
C      -0.71741      9.29074     -1.24417
C      -1.39062     10.37886     -1.90598
C      -0.70884     11.39557     -2.49176
C      -2.88250      8.13422     -1.03371
C      -3.82868      8.94938     -0.40942
C      -5.14322      8.96888     -0.84968
C      -5.54131      8.16591     -1.91110
C      -4.61280      7.34997     -2.53766
C      -3.29558      7.33936     -2.10550
H      -2.36547     10.37499     -1.92843
H      -1.17336     12.11013     -2.93457
H      -3.55758      9.51459      0.36380
H      -5.80518      9.55044     -0.39649
H      -6.46419      8.17380     -2.19702
H      -4.88899      6.78282     -3.28416
H      -2.61996      6.78282     -2.56366
C      -1.42357      6.13293      0.69833
C      -0.71742      5.04926      1.24417
C      -1.39062      3.96114      1.90598
C      -0.70884      2.94443      2.49176
C      -2.88250      6.20578      1.03371
C      -3.82868      5.39062      0.40942
C      -5.14322      5.37112      0.84968
C      -5.54131      6.17409      1.91110
C      -4.61280      6.99003      2.53766
C      -3.29558      7.00064      2.10550
H      -2.36547      3.96501      1.92843
H      -1.17336      2.22987      2.93457
H      -3.55758      4.82541     -0.36380
H      -5.80518      4.78956      0.39649
H      -6.46419      6.16620      2.19702
H      -4.88899      7.55718      3.28416
H      -2.61996      7.55718      2.56366
