18
C18
C 0.733210 7.170000 0.000000
C 1.423570 6.132930 0.698330
C 0.717410 5.049260 1.244170
C 1.390620 3.961140 1.905980
C 0.708840 2.944430 2.491760
C 1.423570 8.207070 -0.698330
C 0.717410 9.290740 -1.244170
C 1.390620 10.378860 -1.905980
C 0.708840 11.395570 -2.491760
C -0.733210 7.170000 0.000000
C -1.423570 8.207070 -0.698330
C -0.717410 9.290740 -1.244170
C -1.390620 10.378860 -1.905980
C -0.708840 11.395570 -2.491760
C -1.423570 6.132930 0.698330
C -0.717420 5.049260 1.244170
C -1.390620 3.961140 1.905980
C -0.708840 2.944430 2.491760