70
H28 C42
C 0.733210 7.170000 0.000000
C 1.423570 6.132930 0.698330
C 0.717410 5.049260 1.244170
C 1.390620 3.961140 1.905980
C 0.708840 2.944430 2.491760
C 2.882500 6.205780 1.033710
C 3.828680 5.390620 0.409420
C 5.143220 5.371120 0.849680
C 5.541300 6.174090 1.911100
C 4.612800 6.990030 2.537660
C 3.295580 7.000640 2.105500
C 1.423570 8.207070 -0.698330
C 0.717410 9.290740 -1.244170
C 1.390620 10.378860 -1.905980
C 0.708840 11.395570 -2.491760
C 2.882500 8.134220 -1.033710
C 3.828680 8.949380 -0.409420
C 5.143220 8.968880 -0.849680
C 5.541300 8.165910 -1.911100
C 4.612800 7.349970 -2.537660
C 3.295580 7.339360 -2.105500
C -0.733210 7.170000 0.000000
C -1.423570 8.207070 -0.698330
C -0.717410 9.290740 -1.244170
C -1.390620 10.378860 -1.905980
C -0.708840 11.395570 -2.491760
C -2.882500 8.134220 -1.033710
C -3.828680 8.949380 -0.409420
C -5.143220 8.968880 -0.849680
C -5.541310 8.165910 -1.911100
C -4.612800 7.349970 -2.537660
C -3.295580 7.339360 -2.105500
C -1.423570 6.132930 0.698330
C -0.717420 5.049260 1.244170
C -1.390620 3.961140 1.905980
C -0.708840 2.944430 2.491760
C -2.882500 6.205780 1.033710
C -3.828680 5.390620 0.409420
C -5.143220 5.371120 0.849680
C -5.541310 6.174090 1.911100
C -4.612800 6.990030 2.537660
C -3.295580 7.000640 2.105500
H 2.490320 3.965506 1.931305
H 1.240856 2.126043 2.998911
H 3.529093 4.766018 -0.445050
H 5.878100 4.725497 0.346568
H 6.591995 6.165107 2.236615
H 4.923651 7.628357 3.377845
H 2.543358 7.620280 2.615606
H 2.490320 10.374494 -1.931305
H 1.240856 12.213957 -2.998911
H 3.529093 9.573982 0.445050
H 5.878100 9.614503 -0.346568
H 6.591995 8.174893 -2.236615
H 4.923651 6.711643 -3.377845
H 2.543358 6.719720 -2.615606
H -2.490320 10.374494 -1.931305
H -1.240856 12.213957 -2.998911
H -3.529093 9.573982 0.445050
H -5.878100 9.614503 -0.346568
H -6.592004 8.174893 -2.236618
H -4.923651 6.711643 -3.377845
H -2.543358 6.719720 -2.615606
H -2.490320 3.965506 1.931305
H -1.240856 2.126043 2.998911
H -3.529093 4.766018 -0.445050
H -5.878100 4.725497 0.346568
H -6.592004 6.165107 2.236618
H -4.923651 7.628357 3.377845
H -2.543358 7.620280 2.615606