21
H7 C14
C 4.455610 7.215310 1.319840
C 3.469820 8.046210 0.736360
C 2.294420 8.401450 1.419620
C 4.829100 8.189000 -1.319840
C 5.814880 7.358100 -0.736360
C 6.990280 7.002860 -1.419620
C 7.977660 6.221340 -0.847860
C 9.175140 5.867730 -1.542320
C 10.125110 5.110720 -0.952410
C 9.958050 4.656110 0.383100
C 8.847560 4.961170 1.081870
C 7.807060 5.757350 0.504990
C 6.648280 6.081800 1.186420
C 5.633490 6.874090 0.615310
H 2.153536 8.043654 2.450219
H 7.131164 7.360656 -2.450219
H 9.326594 6.217757 -2.574087
H 11.034113 4.842960 -1.510996
H 10.745319 4.047808 0.852328
H 8.739243 4.593087 2.112784
H 6.514808 5.708500 2.212496